/*--------------------------------*- C++ -*----------------------------------*\
  =========                 |
  \\      /  F ield         | OpenFOAM: The Open Source CFD Toolbox
   \\    /   O peration     | Website:  https://openfoam.org
    \\  /    A nd           | Version:  8
     \\/     M anipulation  |
\*---------------------------------------------------------------------------*/
FoamFile
{
    version     2.0;
    format      ascii;
    class       dictionary;
    location    "constant";
    object      thermophysicalProperties;
}
// * * * * * * * * * * * * * * * * * * * * * * * * * * * * * * * * * * * * * //

thermoType
{
    type            heRhoThermo;
    mixture         pureMixture;
    transport       const;
    thermo          hConst;
    equationOfState perfectGas;
    specie          specie;
    energy          sensibleInternalEnergy;
}

// Note: these are the properties for a "normalised" inviscid gas
//       for which the speed of sound is 1 m/s at a temperature of 1K
//       and gamma = 7/5
mixture
{
    specie
    {
        molWeight       18.0;
    }
    thermodynamics
    {
        Cp              2000;
        Hf              0;
    }
    transport
    {
        mu              0.000012;
        Pr              1;
    }
}


// ************************************************************************* //
