/*--------------------------------*- C++ -*----------------------------------*\
  =========                 |
  \\      /  F ield         | OpenFOAM: The Open Source CFD Toolbox
   \\    /   O peration     | Website:  https://openfoam.org
    \\  /    A nd           | Version:  8
     \\/     M anipulation  |
\*---------------------------------------------------------------------------*/
FoamFile
{
    version     2.0;
    format      ascii;
    class       volScalarField;
    object      T;
}
// * * * * * * * * * * * * * * * * * * * * * * * * * * * * * * * * * * * * * //

dimensions      [0 0 0 1 0 0 0];

internalField   uniform 303;

boundaryField
{
    walls
    {
        type            fixedValue;
        value           uniform 293;
    }
    left
    {
    type            zeroGradient;
    }
    right
    {
        type            zeroGradient;
        
    }
    centreline
    {
        type            fixedValue;
        value           uniform 303;
    }
        frontAndBack
    {
        type            zeroGradient;
    }

    /* #includeEtc "caseDicts/setConstraintTypes" */
}

// ************************************************************************* //
